New Loadshape.Shape_1 npts=1440 minterval=1 mult=(file=Subhasis_demand_EV_PV_data\Demand_profile_adj1.txt) useactual=true  
New Loadshape.Shape_2 npts=1440 minterval=1 mult=(file=Subhasis_demand_EV_PV_data\Demand_profile_adj2.txt) useactual=true
New Loadshape.Shape_3 npts=1440 minterval=1 mult=(file=Subhasis_demand_EV_PV_data\Demand_profile_adj3.txt) useactual=true
New Loadshape.Shape_4 npts=1440 minterval=1 mult=(file=Subhasis_demand_EV_PV_data\Demand_profile_adj4.txt) useactual=true
New Loadshape.Shape_5 npts=1440 minterval=1 mult=(file=Subhasis_demand_EV_PV_data\Demand_profile_adj5.txt) useactual=true
New Loadshape.Shape_6 npts=1440 minterval=1 mult=(file=Subhasis_demand_EV_PV_data\Demand_profile_adj6.txt) useactual=true
New Loadshape.Shape_7 npts=1440 minterval=1 mult=(file=Subhasis_demand_EV_PV_data\Demand_profile_adj7.txt) useactual=true
New Loadshape.Shape_8 npts=1440 minterval=1 mult=(file=Subhasis_demand_EV_PV_data\Demand_profile_adj8.txt) useactual=true
New Loadshape.Shape_9 npts=1440 minterval=1 mult=(file=Subhasis_demand_EV_PV_data\Demand_profile_adj9.txt) useactual=true
New Loadshape.Shape_10 npts=1440 minterval=1 mult=(file=Subhasis_demand_EV_PV_data\Demand_profile_adj10.txt) useactual=true
New Loadshape.Shape_11 npts=1440 minterval=1 mult=(file=Subhasis_demand_EV_PV_data\Demand_profile_adj11.txt) useactual=true
New Loadshape.Shape_12 npts=1440 minterval=1 mult=(file=Subhasis_demand_EV_PV_data\Demand_profile_adj12.txt) useactual=true
New Loadshape.Shape_13 npts=1440 minterval=1 mult=(file=Subhasis_demand_EV_PV_data\Demand_profile_adj13.txt) useactual=true
New Loadshape.Shape_14 npts=1440 minterval=1 mult=(file=Subhasis_demand_EV_PV_data\Demand_profile_adj14.txt) useactual=true
New Loadshape.Shape_15 npts=1440 minterval=1 mult=(file=Subhasis_demand_EV_PV_data\Demand_profile_adj15.txt) useactual=true
New Loadshape.Shape_16 npts=1440 minterval=1 mult=(file=Subhasis_demand_EV_PV_data\Demand_profile_adj16.txt) useactual=true
New Loadshape.Shape_17 npts=1440 minterval=1 mult=(file=Subhasis_demand_EV_PV_data\Demand_profile_adj17.txt) useactual=true
New Loadshape.Shape_18 npts=1440 minterval=1 mult=(file=Subhasis_demand_EV_PV_data\Demand_profile_adj18.txt) useactual=true
New Loadshape.Shape_19 npts=1440 minterval=1 mult=(file=Subhasis_demand_EV_PV_data\Demand_profile_adj19.txt) useactual=true
New Loadshape.Shape_20 npts=1440 minterval=1 mult=(file=Subhasis_demand_EV_PV_data\Demand_profile_adj20.txt) useactual=true
New Loadshape.Shape_21 npts=1440 minterval=1 mult=(file=Subhasis_demand_EV_PV_data\Demand_profile_adj21.txt) useactual=true
New Loadshape.Shape_22 npts=1440 minterval=1 mult=(file=Subhasis_demand_EV_PV_data\Demand_profile_adj22.txt) useactual=true
New Loadshape.Shape_23 npts=1440 minterval=1 mult=(file=Subhasis_demand_EV_PV_data\Demand_profile_adj23.txt) useactual=true
New Loadshape.Shape_24 npts=1440 minterval=1 mult=(file=Subhasis_demand_EV_PV_data\Demand_profile_adj24.txt) useactual=true
New Loadshape.Shape_25 npts=1440 minterval=1 mult=(file=Subhasis_demand_EV_PV_data\Demand_profile_adj25.txt) useactual=true
New Loadshape.Shape_26 npts=1440 minterval=1 mult=(file=Subhasis_demand_EV_PV_data\Demand_profile_adj26.txt) useactual=true
New Loadshape.Shape_27 npts=1440 minterval=1 mult=(file=Subhasis_demand_EV_PV_data\Demand_profile_adj27.txt) useactual=true
New Loadshape.Shape_28 npts=1440 minterval=1 mult=(file=Subhasis_demand_EV_PV_data\Demand_profile_adj28.txt) useactual=true
New Loadshape.Shape_29 npts=1440 minterval=1 mult=(file=Subhasis_demand_EV_PV_data\Demand_profile_adj29.txt) useactual=true
New Loadshape.Shape_30 npts=1440 minterval=1 mult=(file=Subhasis_demand_EV_PV_data\Demand_profile_adj30.txt) useactual=true
New Loadshape.Shape_31 npts=1440 minterval=1 mult=(file=Subhasis_demand_EV_PV_data\Demand_profile_adj31.txt) useactual=true
New Loadshape.Shape_32 npts=1440 minterval=1 mult=(file=Subhasis_demand_EV_PV_data\Demand_profile_adj32.txt) useactual=true
New Loadshape.Shape_33 npts=1440 minterval=1 mult=(file=Subhasis_demand_EV_PV_data\Demand_profile_adj33.txt) useactual=true
New Loadshape.Shape_34 npts=1440 minterval=1 mult=(file=Subhasis_demand_EV_PV_data\Demand_profile_adj34.txt) useactual=true
New Loadshape.Shape_35 npts=1440 minterval=1 mult=(file=Subhasis_demand_EV_PV_data\Demand_profile_adj35.txt) useactual=true
New Loadshape.Shape_36 npts=1440 minterval=1 mult=(file=Subhasis_demand_EV_PV_data\Demand_profile_adj36.txt) useactual=true
New Loadshape.Shape_37 npts=1440 minterval=1 mult=(file=Subhasis_demand_EV_PV_data\Demand_profile_adj37.txt) useactual=true
New Loadshape.Shape_38 npts=1440 minterval=1 mult=(file=Subhasis_demand_EV_PV_data\Demand_profile_adj38.txt) useactual=true
New Loadshape.Shape_39 npts=1440 minterval=1 mult=(file=Subhasis_demand_EV_PV_data\Demand_profile_adj39.txt) useactual=true
New Loadshape.Shape_40 npts=1440 minterval=1 mult=(file=Subhasis_demand_EV_PV_data\Demand_profile_adj40.txt) useactual=true
New Loadshape.Shape_41 npts=1440 minterval=1 mult=(file=Subhasis_demand_EV_PV_data\Demand_profile_adj41.txt) useactual=true
New Loadshape.Shape_42 npts=1440 minterval=1 mult=(file=Subhasis_demand_EV_PV_data\Demand_profile_adj42.txt) useactual=true
New Loadshape.Shape_43 npts=1440 minterval=1 mult=(file=Subhasis_demand_EV_PV_data\Demand_profile_adj43.txt) useactual=true
New Loadshape.Shape_44 npts=1440 minterval=1 mult=(file=Subhasis_demand_EV_PV_data\Demand_profile_adj44.txt) useactual=true
New Loadshape.Shape_45 npts=1440 minterval=1 mult=(file=Subhasis_demand_EV_PV_data\Demand_profile_adj45.txt) useactual=true
New Loadshape.Shape_46 npts=1440 minterval=1 mult=(file=Subhasis_demand_EV_PV_data\Demand_profile_adj46.txt) useactual=true
New Loadshape.Shape_47 npts=1440 minterval=1 mult=(file=Subhasis_demand_EV_PV_data\Demand_profile_adj47.txt) useactual=true
New Loadshape.Shape_48 npts=1440 minterval=1 mult=(file=Subhasis_demand_EV_PV_data\Demand_profile_adj48.txt) useactual=true
New Loadshape.Shape_49 npts=1440 minterval=1 mult=(file=Subhasis_demand_EV_PV_data\Demand_profile_adj49.txt) useactual=true
New Loadshape.Shape_50 npts=1440 minterval=1 mult=(file=Subhasis_demand_EV_PV_data\Demand_profile_adj50.txt) useactual=true
New Loadshape.Shape_51 npts=1440 minterval=1 mult=(file=Subhasis_demand_EV_PV_data\Demand_profile_adj51.txt) useactual=true
New Loadshape.Shape_52 npts=1440 minterval=1 mult=(file=Subhasis_demand_EV_PV_data\Demand_profile_adj52.txt) useactual=true
New Loadshape.Shape_53 npts=1440 minterval=1 mult=(file=Subhasis_demand_EV_PV_data\Demand_profile_adj53.txt) useactual=true
New Loadshape.Shape_54 npts=1440 minterval=1 mult=(file=Subhasis_demand_EV_PV_data\Demand_profile_adj54.txt) useactual=true
New Loadshape.Shape_55 npts=1440 minterval=1 mult=(file=Subhasis_demand_EV_PV_data\Demand_profile_adj55.txt) useactual=true

 !! PV Shapes
New Loadshape.PV_1 npts=1440 minterval=1 mult=(file=Subhasis_demand_EV_PV_data\PV_profile1.txt) useactual=true
New Loadshape.PV_2 npts=1440 minterval=1 mult=(file=Subhasis_demand_EV_PV_data\PV_profile2.txt) useactual=true
New Loadshape.PV_3 npts=1440 minterval=1 mult=(file=Subhasis_demand_EV_PV_data\PV_profile3.txt) useactual=true
New Loadshape.PV_4 npts=1440 minterval=1 mult=(file=Subhasis_demand_EV_PV_data\PV_profile4.txt) useactual=true
New Loadshape.PV_5 npts=1440 minterval=1 mult=(file=Subhasis_demand_EV_PV_data\PV_profile5.txt) useactual=true
New Loadshape.PV_6 npts=1440 minterval=1 mult=(file=Subhasis_demand_EV_PV_data\PV_profile6.txt) useactual=true
New Loadshape.PV_7 npts=1440 minterval=1 mult=(file=Subhasis_demand_EV_PV_data\PV_profile7.txt) useactual=true
New Loadshape.PV_8 npts=1440 minterval=1 mult=(file=Subhasis_demand_EV_PV_data\PV_profile8.txt) useactual=true
New Loadshape.PV_9 npts=1440 minterval=1 mult=(file=Subhasis_demand_EV_PV_data\PV_profile9.txt) useactual=true
New Loadshape.PV_10 npts=1440 minterval=1 mult=(file=Subhasis_demand_EV_PV_data\PV_profile10.txt) useactual=true
New Loadshape.PV_11 npts=1440 minterval=1 mult=(file=Subhasis_demand_EV_PV_data\PV_profile11.txt) useactual=true
New Loadshape.PV_12 npts=1440 minterval=1 mult=(file=Subhasis_demand_EV_PV_data\PV_profile12.txt) useactual=true
New Loadshape.PV_13 npts=1440 minterval=1 mult=(file=Subhasis_demand_EV_PV_data\PV_profile13.txt) useactual=true
New Loadshape.PV_14 npts=1440 minterval=1 mult=(file=Subhasis_demand_EV_PV_data\PV_profile14.txt) useactual=true
New Loadshape.PV_15 npts=1440 minterval=1 mult=(file=Subhasis_demand_EV_PV_data\PV_profile15.txt) useactual=true
New Loadshape.PV_16 npts=1440 minterval=1 mult=(file=Subhasis_demand_EV_PV_data\PV_profile16.txt) useactual=true
New Loadshape.PV_17 npts=1440 minterval=1 mult=(file=Subhasis_demand_EV_PV_data\PV_profile17.txt) useactual=true
New Loadshape.PV_18 npts=1440 minterval=1 mult=(file=Subhasis_demand_EV_PV_data\PV_profile18.txt) useactual=true
New Loadshape.PV_19 npts=1440 minterval=1 mult=(file=Subhasis_demand_EV_PV_data\PV_profile19.txt) useactual=true
New Loadshape.PV_20 npts=1440 minterval=1 mult=(file=Subhasis_demand_EV_PV_data\PV_profile20.txt) useactual=true
New Loadshape.PV_21 npts=1440 minterval=1 mult=(file=Subhasis_demand_EV_PV_data\PV_profile21.txt) useactual=true
New Loadshape.PV_22 npts=1440 minterval=1 mult=(file=Subhasis_demand_EV_PV_data\PV_profile22.txt) useactual=true
New Loadshape.PV_23 npts=1440 minterval=1 mult=(file=Subhasis_demand_EV_PV_data\PV_profile23.txt) useactual=true
New Loadshape.PV_24 npts=1440 minterval=1 mult=(file=Subhasis_demand_EV_PV_data\PV_profile24.txt) useactual=true
New Loadshape.PV_25 npts=1440 minterval=1 mult=(file=Subhasis_demand_EV_PV_data\PV_profile25.txt) useactual=true
New Loadshape.PV_26 npts=1440 minterval=1 mult=(file=Subhasis_demand_EV_PV_data\PV_profile26.txt) useactual=true
New Loadshape.PV_27 npts=1440 minterval=1 mult=(file=Subhasis_demand_EV_PV_data\PV_profile27.txt) useactual=true
New Loadshape.PV_28 npts=1440 minterval=1 mult=(file=Subhasis_demand_EV_PV_data\PV_profile28.txt) useactual=true
New Loadshape.PV_29 npts=1440 minterval=1 mult=(file=Subhasis_demand_EV_PV_data\PV_profile29.txt) useactual=true
New Loadshape.PV_30 npts=1440 minterval=1 mult=(file=Subhasis_demand_EV_PV_data\PV_profile30.txt) useactual=true
New Loadshape.PV_31 npts=1440 minterval=1 mult=(file=Subhasis_demand_EV_PV_data\PV_profile31.txt) useactual=true
New Loadshape.PV_32 npts=1440 minterval=1 mult=(file=Subhasis_demand_EV_PV_data\PV_profile32.txt) useactual=true
New Loadshape.PV_33 npts=1440 minterval=1 mult=(file=Subhasis_demand_EV_PV_data\PV_profile33.txt) useactual=true
New Loadshape.PV_34 npts=1440 minterval=1 mult=(file=Subhasis_demand_EV_PV_data\PV_profile34.txt) useactual=true
New Loadshape.PV_35 npts=1440 minterval=1 mult=(file=Subhasis_demand_EV_PV_data\PV_profile35.txt) useactual=true
New Loadshape.PV_36 npts=1440 minterval=1 mult=(file=Subhasis_demand_EV_PV_data\PV_profile36.txt) useactual=true
New Loadshape.PV_37 npts=1440 minterval=1 mult=(file=Subhasis_demand_EV_PV_data\PV_profile37.txt) useactual=true
New Loadshape.PV_38 npts=1440 minterval=1 mult=(file=Subhasis_demand_EV_PV_data\PV_profile38.txt) useactual=true
New Loadshape.PV_39 npts=1440 minterval=1 mult=(file=Subhasis_demand_EV_PV_data\PV_profile39.txt) useactual=true
New Loadshape.PV_40 npts=1440 minterval=1 mult=(file=Subhasis_demand_EV_PV_data\PV_profile40.txt) useactual=true
New Loadshape.PV_41 npts=1440 minterval=1 mult=(file=Subhasis_demand_EV_PV_data\PV_profile41.txt) useactual=true
New Loadshape.PV_42 npts=1440 minterval=1 mult=(file=Subhasis_demand_EV_PV_data\PV_profile42.txt) useactual=true
New Loadshape.PV_43 npts=1440 minterval=1 mult=(file=Subhasis_demand_EV_PV_data\PV_profile43.txt) useactual=true
New Loadshape.PV_44 npts=1440 minterval=1 mult=(file=Subhasis_demand_EV_PV_data\PV_profile44.txt) useactual=true
New Loadshape.PV_45 npts=1440 minterval=1 mult=(file=Subhasis_demand_EV_PV_data\PV_profile45.txt) useactual=true
New Loadshape.PV_46 npts=1440 minterval=1 mult=(file=Subhasis_demand_EV_PV_data\PV_profile46.txt) useactual=true
New Loadshape.PV_47 npts=1440 minterval=1 mult=(file=Subhasis_demand_EV_PV_data\PV_profile47.txt) useactual=true
New Loadshape.PV_48 npts=1440 minterval=1 mult=(file=Subhasis_demand_EV_PV_data\PV_profile48.txt) useactual=true
New Loadshape.PV_49 npts=1440 minterval=1 mult=(file=Subhasis_demand_EV_PV_data\PV_profile49.txt) useactual=true
New Loadshape.PV_50 npts=1440 minterval=1 mult=(file=Subhasis_demand_EV_PV_data\PV_profile50.txt) useactual=true
New Loadshape.PV_51 npts=1440 minterval=1 mult=(file=Subhasis_demand_EV_PV_data\PV_profile51.txt) useactual=true
New Loadshape.PV_52 npts=1440 minterval=1 mult=(file=Subhasis_demand_EV_PV_data\PV_profile52.txt) useactual=true
New Loadshape.PV_53 npts=1440 minterval=1 mult=(file=Subhasis_demand_EV_PV_data\PV_profile53.txt) useactual=true
New Loadshape.PV_54 npts=1440 minterval=1 mult=(file=Subhasis_demand_EV_PV_data\PV_profile54.txt) useactual=true
New Loadshape.PV_55 npts=1440 minterval=1 mult=(file=Subhasis_demand_EV_PV_data\PV_profile55.txt) useactual=true

 !! EV Shapes
New Loadshape.EV_1 npts=1440 minterval=1 mult=(file=Subhasis_demand_EV_PV_data\EV_profile1.txt) useactual=true
New Loadshape.EV_2 npts=1440 minterval=1 mult=(file=Subhasis_demand_EV_PV_data\EV_profile2.txt) useactual=true
New Loadshape.EV_3 npts=1440 minterval=1 mult=(file=Subhasis_demand_EV_PV_data\EV_profile3.txt) useactual=true
New Loadshape.EV_4 npts=1440 minterval=1 mult=(file=Subhasis_demand_EV_PV_data\EV_profile4.txt) useactual=true
New Loadshape.EV_5 npts=1440 minterval=1 mult=(file=Subhasis_demand_EV_PV_data\EV_profile5.txt) useactual=true
New Loadshape.EV_6 npts=1440 minterval=1 mult=(file=Subhasis_demand_EV_PV_data\EV_profile6.txt) useactual=true
New Loadshape.EV_7 npts=1440 minterval=1 mult=(file=Subhasis_demand_EV_PV_data\EV_profile7.txt) useactual=true
New Loadshape.EV_8 npts=1440 minterval=1 mult=(file=Subhasis_demand_EV_PV_data\EV_profile8.txt) useactual=true
New Loadshape.EV_9 npts=1440 minterval=1 mult=(file=Subhasis_demand_EV_PV_data\EV_profile9.txt) useactual=true
New Loadshape.EV_10 npts=1440 minterval=1 mult=(file=Subhasis_demand_EV_PV_data\EV_profile10.txt) useactual=true
New Loadshape.EV_11 npts=1440 minterval=1 mult=(file=Subhasis_demand_EV_PV_data\EV_profile11.txt) useactual=true
New Loadshape.EV_12 npts=1440 minterval=1 mult=(file=Subhasis_demand_EV_PV_data\EV_profile12.txt) useactual=true
New Loadshape.EV_13 npts=1440 minterval=1 mult=(file=Subhasis_demand_EV_PV_data\EV_profile13.txt) useactual=true
New Loadshape.EV_14 npts=1440 minterval=1 mult=(file=Subhasis_demand_EV_PV_data\EV_profile14.txt) useactual=true
New Loadshape.EV_15 npts=1440 minterval=1 mult=(file=Subhasis_demand_EV_PV_data\EV_profile15.txt) useactual=true
New Loadshape.EV_16 npts=1440 minterval=1 mult=(file=Subhasis_demand_EV_PV_data\EV_profile16.txt) useactual=true
New Loadshape.EV_17 npts=1440 minterval=1 mult=(file=Subhasis_demand_EV_PV_data\EV_profile17.txt) useactual=true
New Loadshape.EV_18 npts=1440 minterval=1 mult=(file=Subhasis_demand_EV_PV_data\EV_profile18.txt) useactual=true
New Loadshape.EV_19 npts=1440 minterval=1 mult=(file=Subhasis_demand_EV_PV_data\EV_profile19.txt) useactual=true
New Loadshape.EV_20 npts=1440 minterval=1 mult=(file=Subhasis_demand_EV_PV_data\EV_profile20.txt) useactual=true
New Loadshape.EV_21 npts=1440 minterval=1 mult=(file=Subhasis_demand_EV_PV_data\EV_profile21.txt) useactual=true
New Loadshape.EV_22 npts=1440 minterval=1 mult=(file=Subhasis_demand_EV_PV_data\EV_profile22.txt) useactual=true
New Loadshape.EV_23 npts=1440 minterval=1 mult=(file=Subhasis_demand_EV_PV_data\EV_profile23.txt) useactual=true
New Loadshape.EV_24 npts=1440 minterval=1 mult=(file=Subhasis_demand_EV_PV_data\EV_profile24.txt) useactual=true
New Loadshape.EV_25 npts=1440 minterval=1 mult=(file=Subhasis_demand_EV_PV_data\EV_profile25.txt) useactual=true
New Loadshape.EV_26 npts=1440 minterval=1 mult=(file=Subhasis_demand_EV_PV_data\EV_profile26.txt) useactual=true
New Loadshape.EV_27 npts=1440 minterval=1 mult=(file=Subhasis_demand_EV_PV_data\EV_profile27.txt) useactual=true
New Loadshape.EV_28 npts=1440 minterval=1 mult=(file=Subhasis_demand_EV_PV_data\EV_profile28.txt) useactual=true
New Loadshape.EV_29 npts=1440 minterval=1 mult=(file=Subhasis_demand_EV_PV_data\EV_profile29.txt) useactual=true
New Loadshape.EV_30 npts=1440 minterval=1 mult=(file=Subhasis_demand_EV_PV_data\EV_profile30.txt) useactual=true
New Loadshape.EV_31 npts=1440 minterval=1 mult=(file=Subhasis_demand_EV_PV_data\EV_profile31.txt) useactual=true
New Loadshape.EV_32 npts=1440 minterval=1 mult=(file=Subhasis_demand_EV_PV_data\EV_profile32.txt) useactual=true
New Loadshape.EV_33 npts=1440 minterval=1 mult=(file=Subhasis_demand_EV_PV_data\EV_profile33.txt) useactual=true
New Loadshape.EV_34 npts=1440 minterval=1 mult=(file=Subhasis_demand_EV_PV_data\EV_profile34.txt) useactual=true
New Loadshape.EV_35 npts=1440 minterval=1 mult=(file=Subhasis_demand_EV_PV_data\EV_profile35.txt) useactual=true
New Loadshape.EV_36 npts=1440 minterval=1 mult=(file=Subhasis_demand_EV_PV_data\EV_profile36.txt) useactual=true
New Loadshape.EV_37 npts=1440 minterval=1 mult=(file=Subhasis_demand_EV_PV_data\EV_profile37.txt) useactual=true
New Loadshape.EV_38 npts=1440 minterval=1 mult=(file=Subhasis_demand_EV_PV_data\EV_profile38.txt) useactual=true
New Loadshape.EV_39 npts=1440 minterval=1 mult=(file=Subhasis_demand_EV_PV_data\EV_profile39.txt) useactual=true
New Loadshape.EV_40 npts=1440 minterval=1 mult=(file=Subhasis_demand_EV_PV_data\EV_profile40.txt) useactual=true
New Loadshape.EV_41 npts=1440 minterval=1 mult=(file=Subhasis_demand_EV_PV_data\EV_profile41.txt) useactual=true
New Loadshape.EV_42 npts=1440 minterval=1 mult=(file=Subhasis_demand_EV_PV_data\EV_profile42.txt) useactual=true
New Loadshape.EV_43 npts=1440 minterval=1 mult=(file=Subhasis_demand_EV_PV_data\EV_profile43.txt) useactual=true
New Loadshape.EV_44 npts=1440 minterval=1 mult=(file=Subhasis_demand_EV_PV_data\EV_profile44.txt) useactual=true
New Loadshape.EV_45 npts=1440 minterval=1 mult=(file=Subhasis_demand_EV_PV_data\EV_profile45.txt) useactual=true
New Loadshape.EV_46 npts=1440 minterval=1 mult=(file=Subhasis_demand_EV_PV_data\EV_profile46.txt) useactual=true
New Loadshape.EV_47 npts=1440 minterval=1 mult=(file=Subhasis_demand_EV_PV_data\EV_profile47.txt) useactual=true
New Loadshape.EV_48 npts=1440 minterval=1 mult=(file=Subhasis_demand_EV_PV_data\EV_profile48.txt) useactual=true
New Loadshape.EV_49 npts=1440 minterval=1 mult=(file=Subhasis_demand_EV_PV_data\EV_profile49.txt) useactual=true
New Loadshape.EV_50 npts=1440 minterval=1 mult=(file=Subhasis_demand_EV_PV_data\EV_profile50.txt) useactual=true
New Loadshape.EV_51 npts=1440 minterval=1 mult=(file=Subhasis_demand_EV_PV_data\EV_profile51.txt) useactual=true
New Loadshape.EV_52 npts=1440 minterval=1 mult=(file=Subhasis_demand_EV_PV_data\EV_profile52.txt) useactual=true
New Loadshape.EV_53 npts=1440 minterval=1 mult=(file=Subhasis_demand_EV_PV_data\EV_profile53.txt) useactual=true
New Loadshape.EV_54 npts=1440 minterval=1 mult=(file=Subhasis_demand_EV_PV_data\EV_profile54.txt) useactual=true
New Loadshape.EV_55 npts=1440 minterval=1 mult=(file=Subhasis_demand_EV_PV_data\EV_profile55.txt) useactual=true