New Loadshape.Shape_1 npts=1440 minterval=1 mult=(file=Daily_1min_100profiles\Winter_profile_1.txt) useactual=true
New Loadshape.Shape_2 npts=1440 minterval=1 mult=(file=Daily_1min_100profiles\Winter_profile_2.txt) useactual=true
New Loadshape.Shape_3 npts=1440 minterval=1 mult=(file=Daily_1min_100profiles\Winter_profile_3.txt) useactual=true
New Loadshape.Shape_4 npts=1440 minterval=1 mult=(file=Daily_1min_100profiles\Winter_profile_4.txt) useactual=true
New Loadshape.Shape_5 npts=1440 minterval=1 mult=(file=Daily_1min_100profiles\Winter_profile_5.txt) useactual=true
New Loadshape.Shape_6 npts=1440 minterval=1 mult=(file=Daily_1min_100profiles\Winter_profile_6.txt) useactual=true
New Loadshape.Shape_7 npts=1440 minterval=1 mult=(file=Daily_1min_100profiles\Winter_profile_7.txt) useactual=true
New Loadshape.Shape_8 npts=1440 minterval=1 mult=(file=Daily_1min_100profiles\Winter_profile_8.txt) useactual=true
New Loadshape.Shape_9 npts=1440 minterval=1 mult=(file=Daily_1min_100profiles\Winter_profile_9.txt) useactual=true
New Loadshape.Shape_10 npts=1440 minterval=1 mult=(file=Daily_1min_100profiles\Winter_profile_10.txt) useactual=true
New Loadshape.Shape_11 npts=1440 minterval=1 mult=(file=Daily_1min_100profiles\Winter_profile_11.txt) useactual=true
New Loadshape.Shape_12 npts=1440 minterval=1 mult=(file=Daily_1min_100profiles\Winter_profile_12.txt) useactual=true
New Loadshape.Shape_13 npts=1440 minterval=1 mult=(file=Daily_1min_100profiles\Winter_profile_13.txt) useactual=true
New Loadshape.Shape_14 npts=1440 minterval=1 mult=(file=Daily_1min_100profiles\Winter_profile_14.txt) useactual=true
New Loadshape.Shape_15 npts=1440 minterval=1 mult=(file=Daily_1min_100profiles\Winter_profile_15.txt) useactual=true
New Loadshape.Shape_16 npts=1440 minterval=1 mult=(file=Daily_1min_100profiles\Winter_profile_16.txt) useactual=true
New Loadshape.Shape_17 npts=1440 minterval=1 mult=(file=Daily_1min_100profiles\Winter_profile_17.txt) useactual=true
New Loadshape.Shape_18 npts=1440 minterval=1 mult=(file=Daily_1min_100profiles\Winter_profile_18.txt) useactual=true
New Loadshape.Shape_19 npts=1440 minterval=1 mult=(file=Daily_1min_100profiles\Winter_profile_19.txt) useactual=true
New Loadshape.Shape_20 npts=1440 minterval=1 mult=(file=Daily_1min_100profiles\Winter_profile_20.txt) useactual=true
New Loadshape.Shape_21 npts=1440 minterval=1 mult=(file=Daily_1min_100profiles\Winter_profile_21.txt) useactual=true
New Loadshape.Shape_22 npts=1440 minterval=1 mult=(file=Daily_1min_100profiles\Winter_profile_22.txt) useactual=true
New Loadshape.Shape_23 npts=1440 minterval=1 mult=(file=Daily_1min_100profiles\Winter_profile_23.txt) useactual=true
New Loadshape.Shape_24 npts=1440 minterval=1 mult=(file=Daily_1min_100profiles\Winter_profile_24.txt) useactual=true
New Loadshape.Shape_25 npts=1440 minterval=1 mult=(file=Daily_1min_100profiles\Winter_profile_25.txt) useactual=true
New Loadshape.Shape_26 npts=1440 minterval=1 mult=(file=Daily_1min_100profiles\Winter_profile_26.txt) useactual=true
New Loadshape.Shape_27 npts=1440 minterval=1 mult=(file=Daily_1min_100profiles\Winter_profile_27.txt) useactual=true
New Loadshape.Shape_28 npts=1440 minterval=1 mult=(file=Daily_1min_100profiles\Winter_profile_28.txt) useactual=true
New Loadshape.Shape_29 npts=1440 minterval=1 mult=(file=Daily_1min_100profiles\Winter_profile_29.txt) useactual=true
New Loadshape.Shape_30 npts=1440 minterval=1 mult=(file=Daily_1min_100profiles\Winter_profile_30.txt) useactual=true
New Loadshape.Shape_31 npts=1440 minterval=1 mult=(file=Daily_1min_100profiles\Winter_profile_31.txt) useactual=true
New Loadshape.Shape_32 npts=1440 minterval=1 mult=(file=Daily_1min_100profiles\Winter_profile_32.txt) useactual=true
New Loadshape.Shape_33 npts=1440 minterval=1 mult=(file=Daily_1min_100profiles\Winter_profile_33.txt) useactual=true
New Loadshape.Shape_34 npts=1440 minterval=1 mult=(file=Daily_1min_100profiles\Winter_profile_34.txt) useactual=true
New Loadshape.Shape_35 npts=1440 minterval=1 mult=(file=Daily_1min_100profiles\Winter_profile_35.txt) useactual=true
New Loadshape.Shape_36 npts=1440 minterval=1 mult=(file=Daily_1min_100profiles\Winter_profile_36.txt) useactual=true
New Loadshape.Shape_37 npts=1440 minterval=1 mult=(file=Daily_1min_100profiles\Winter_profile_37.txt) useactual=true
New Loadshape.Shape_38 npts=1440 minterval=1 mult=(file=Daily_1min_100profiles\Winter_profile_38.txt) useactual=true
New Loadshape.Shape_39 npts=1440 minterval=1 mult=(file=Daily_1min_100profiles\Winter_profile_39.txt) useactual=true
New Loadshape.Shape_40 npts=1440 minterval=1 mult=(file=Daily_1min_100profiles\Winter_profile_40.txt) useactual=true
New Loadshape.Shape_41 npts=1440 minterval=1 mult=(file=Daily_1min_100profiles\Winter_profile_41.txt) useactual=true
New Loadshape.Shape_42 npts=1440 minterval=1 mult=(file=Daily_1min_100profiles\Winter_profile_42.txt) useactual=true
New Loadshape.Shape_43 npts=1440 minterval=1 mult=(file=Daily_1min_100profiles\Winter_profile_43.txt) useactual=true
New Loadshape.Shape_44 npts=1440 minterval=1 mult=(file=Daily_1min_100profiles\Winter_profile_44.txt) useactual=true
New Loadshape.Shape_45 npts=1440 minterval=1 mult=(file=Daily_1min_100profiles\Winter_profile_45.txt) useactual=true
New Loadshape.Shape_46 npts=1440 minterval=1 mult=(file=Daily_1min_100profiles\Winter_profile_46.txt) useactual=true
New Loadshape.Shape_47 npts=1440 minterval=1 mult=(file=Daily_1min_100profiles\Winter_profile_47.txt) useactual=true
New Loadshape.Shape_48 npts=1440 minterval=1 mult=(file=Daily_1min_100profiles\Winter_profile_48.txt) useactual=true
New Loadshape.Shape_49 npts=1440 minterval=1 mult=(file=Daily_1min_100profiles\Winter_profile_49.txt) useactual=true
New Loadshape.Shape_50 npts=1440 minterval=1 mult=(file=Daily_1min_100profiles\Winter_profile_50.txt) useactual=true
New Loadshape.Shape_51 npts=1440 minterval=1 mult=(file=Daily_1min_100profiles\Winter_profile_51.txt) useactual=true
New Loadshape.Shape_52 npts=1440 minterval=1 mult=(file=Daily_1min_100profiles\Winter_profile_52.txt) useactual=true
New Loadshape.Shape_53 npts=1440 minterval=1 mult=(file=Daily_1min_100profiles\Winter_profile_53.txt) useactual=true
New Loadshape.Shape_54 npts=1440 minterval=1 mult=(file=Daily_1min_100profiles\Winter_profile_54.txt) useactual=true
New Loadshape.Shape_55 npts=1440 minterval=1 mult=(file=Daily_1min_100profiles\Winter_profile_55.txt) useactual=true

 !! Winter PV Shapes
New Loadshape.PV_1 npts=1440 minterval=1 mult=(file=Daily_1min_100profiles\WinterPV_profile_1.txt) useactual=true
New Loadshape.PV_2 npts=1440 minterval=1 mult=(file=Daily_1min_100profiles\WinterPV_profile_2.txt) useactual=true
New Loadshape.PV_3 npts=1440 minterval=1 mult=(file=Daily_1min_100profiles\WinterPV_profile_3.txt) useactual=true
New Loadshape.PV_4 npts=1440 minterval=1 mult=(file=Daily_1min_100profiles\WinterPV_profile_4.txt) useactual=true
New Loadshape.PV_5 npts=1440 minterval=1 mult=(file=Daily_1min_100profiles\WinterPV_profile_5.txt) useactual=true
New Loadshape.PV_6 npts=1440 minterval=1 mult=(file=Daily_1min_100profiles\WinterPV_profile_6.txt) useactual=true
New Loadshape.PV_7 npts=1440 minterval=1 mult=(file=Daily_1min_100profiles\WinterPV_profile_7.txt) useactual=true
New Loadshape.PV_8 npts=1440 minterval=1 mult=(file=Daily_1min_100profiles\WinterPV_profile_8.txt) useactual=true
New Loadshape.PV_9 npts=1440 minterval=1 mult=(file=Daily_1min_100profiles\WinterPV_profile_9.txt) useactual=true
New Loadshape.PV_10 npts=1440 minterval=1 mult=(file=Daily_1min_100profiles\WinterPV_profile_10.txt) useactual=true
New Loadshape.PV_11 npts=1440 minterval=1 mult=(file=Daily_1min_100profiles\WinterPV_profile_11.txt) useactual=true
New Loadshape.PV_12 npts=1440 minterval=1 mult=(file=Daily_1min_100profiles\WinterPV_profile_12.txt) useactual=true
New Loadshape.PV_13 npts=1440 minterval=1 mult=(file=Daily_1min_100profiles\WinterPV_profile_13.txt) useactual=true
New Loadshape.PV_14 npts=1440 minterval=1 mult=(file=Daily_1min_100profiles\WinterPV_profile_14.txt) useactual=true
New Loadshape.PV_15 npts=1440 minterval=1 mult=(file=Daily_1min_100profiles\WinterPV_profile_15.txt) useactual=true
New Loadshape.PV_16 npts=1440 minterval=1 mult=(file=Daily_1min_100profiles\WinterPV_profile_16.txt) useactual=true
New Loadshape.PV_17 npts=1440 minterval=1 mult=(file=Daily_1min_100profiles\WinterPV_profile_17.txt) useactual=true
New Loadshape.PV_18 npts=1440 minterval=1 mult=(file=Daily_1min_100profiles\WinterPV_profile_18.txt) useactual=true
New Loadshape.PV_19 npts=1440 minterval=1 mult=(file=Daily_1min_100profiles\WinterPV_profile_19.txt) useactual=true
New Loadshape.PV_20 npts=1440 minterval=1 mult=(file=Daily_1min_100profiles\WinterPV_profile_20.txt) useactual=true
New Loadshape.PV_21 npts=1440 minterval=1 mult=(file=Daily_1min_100profiles\WinterPV_profile_21.txt) useactual=true
New Loadshape.PV_22 npts=1440 minterval=1 mult=(file=Daily_1min_100profiles\WinterPV_profile_22.txt) useactual=true
New Loadshape.PV_23 npts=1440 minterval=1 mult=(file=Daily_1min_100profiles\WinterPV_profile_23.txt) useactual=true
New Loadshape.PV_24 npts=1440 minterval=1 mult=(file=Daily_1min_100profiles\WinterPV_profile_24.txt) useactual=true
New Loadshape.PV_25 npts=1440 minterval=1 mult=(file=Daily_1min_100profiles\WinterPV_profile_25.txt) useactual=true
New Loadshape.PV_26 npts=1440 minterval=1 mult=(file=Daily_1min_100profiles\WinterPV_profile_26.txt) useactual=true
New Loadshape.PV_27 npts=1440 minterval=1 mult=(file=Daily_1min_100profiles\WinterPV_profile_27.txt) useactual=true
New Loadshape.PV_28 npts=1440 minterval=1 mult=(file=Daily_1min_100profiles\WinterPV_profile_28.txt) useactual=true
New Loadshape.PV_29 npts=1440 minterval=1 mult=(file=Daily_1min_100profiles\WinterPV_profile_29.txt) useactual=true
New Loadshape.PV_30 npts=1440 minterval=1 mult=(file=Daily_1min_100profiles\WinterPV_profile_30.txt) useactual=true
New Loadshape.PV_31 npts=1440 minterval=1 mult=(file=Daily_1min_100profiles\WinterPV_profile_31.txt) useactual=true
New Loadshape.PV_32 npts=1440 minterval=1 mult=(file=Daily_1min_100profiles\WinterPV_profile_32.txt) useactual=true
New Loadshape.PV_33 npts=1440 minterval=1 mult=(file=Daily_1min_100profiles\WinterPV_profile_33.txt) useactual=true
New Loadshape.PV_34 npts=1440 minterval=1 mult=(file=Daily_1min_100profiles\WinterPV_profile_34.txt) useactual=true
New Loadshape.PV_35 npts=1440 minterval=1 mult=(file=Daily_1min_100profiles\WinterPV_profile_35.txt) useactual=true
New Loadshape.PV_36 npts=1440 minterval=1 mult=(file=Daily_1min_100profiles\WinterPV_profile_36.txt) useactual=true
New Loadshape.PV_37 npts=1440 minterval=1 mult=(file=Daily_1min_100profiles\WinterPV_profile_37.txt) useactual=true
New Loadshape.PV_38 npts=1440 minterval=1 mult=(file=Daily_1min_100profiles\WinterPV_profile_38.txt) useactual=true
New Loadshape.PV_39 npts=1440 minterval=1 mult=(file=Daily_1min_100profiles\WinterPV_profile_39.txt) useactual=true
New Loadshape.PV_40 npts=1440 minterval=1 mult=(file=Daily_1min_100profiles\WinterPV_profile_40.txt) useactual=true
New Loadshape.PV_41 npts=1440 minterval=1 mult=(file=Daily_1min_100profiles\WinterPV_profile_41.txt) useactual=true
New Loadshape.PV_42 npts=1440 minterval=1 mult=(file=Daily_1min_100profiles\WinterPV_profile_42.txt) useactual=true
New Loadshape.PV_43 npts=1440 minterval=1 mult=(file=Daily_1min_100profiles\WinterPV_profile_43.txt) useactual=true
New Loadshape.PV_44 npts=1440 minterval=1 mult=(file=Daily_1min_100profiles\WinterPV_profile_44.txt) useactual=true
New Loadshape.PV_45 npts=1440 minterval=1 mult=(file=Daily_1min_100profiles\WinterPV_profile_45.txt) useactual=true
New Loadshape.PV_46 npts=1440 minterval=1 mult=(file=Daily_1min_100profiles\WinterPV_profile_46.txt) useactual=true
New Loadshape.PV_47 npts=1440 minterval=1 mult=(file=Daily_1min_100profiles\WinterPV_profile_47.txt) useactual=true
New Loadshape.PV_48 npts=1440 minterval=1 mult=(file=Daily_1min_100profiles\WinterPV_profile_48.txt) useactual=true
New Loadshape.PV_49 npts=1440 minterval=1 mult=(file=Daily_1min_100profiles\WinterPV_profile_49.txt) useactual=true
New Loadshape.PV_50 npts=1440 minterval=1 mult=(file=Daily_1min_100profiles\WinterPV_profile_50.txt) useactual=true
New Loadshape.PV_51 npts=1440 minterval=1 mult=(file=Daily_1min_100profiles\WinterPV_profile_51.txt) useactual=true
New Loadshape.PV_52 npts=1440 minterval=1 mult=(file=Daily_1min_100profiles\WinterPV_profile_52.txt) useactual=true
New Loadshape.PV_53 npts=1440 minterval=1 mult=(file=Daily_1min_100profiles\WinterPV_profile_53.txt) useactual=true
New Loadshape.PV_54 npts=1440 minterval=1 mult=(file=Daily_1min_100profiles\WinterPV_profile_54.txt) useactual=true
New Loadshape.PV_55 npts=1440 minterval=1 mult=(file=Daily_1min_100profiles\WinterPV_profile_55.txt) useactual=true

 !! EV Shapes
New Loadshape.EV_1 npts=1440 minterval=1 mult=(file=Daily_1min_100profiles\WinterEV_profile_1.txt) useactual=true
New Loadshape.EV_2 npts=1440 minterval=1 mult=(file=Daily_1min_100profiles\WinterEV_profile_2.txt) useactual=true
New Loadshape.EV_3 npts=1440 minterval=1 mult=(file=Daily_1min_100profiles\WinterEV_profile_3.txt) useactual=true
New Loadshape.EV_4 npts=1440 minterval=1 mult=(file=Daily_1min_100profiles\WinterEV_profile_4.txt) useactual=true
New Loadshape.EV_5 npts=1440 minterval=1 mult=(file=Daily_1min_100profiles\WinterEV_profile_5.txt) useactual=true
New Loadshape.EV_6 npts=1440 minterval=1 mult=(file=Daily_1min_100profiles\WinterEV_profile_6.txt) useactual=true
New Loadshape.EV_7 npts=1440 minterval=1 mult=(file=Daily_1min_100profiles\WinterEV_profile_7.txt) useactual=true
New Loadshape.EV_8 npts=1440 minterval=1 mult=(file=Daily_1min_100profiles\WinterEV_profile_8.txt) useactual=true
New Loadshape.EV_9 npts=1440 minterval=1 mult=(file=Daily_1min_100profiles\WinterEV_profile_9.txt) useactual=true
New Loadshape.EV_10 npts=1440 minterval=1 mult=(file=Daily_1min_100profiles\WinterEV_profile_10.txt) useactual=true
New Loadshape.EV_11 npts=1440 minterval=1 mult=(file=Daily_1min_100profiles\WinterEV_profile_11.txt) useactual=true
New Loadshape.EV_12 npts=1440 minterval=1 mult=(file=Daily_1min_100profiles\WinterEV_profile_12.txt) useactual=true
New Loadshape.EV_13 npts=1440 minterval=1 mult=(file=Daily_1min_100profiles\WinterEV_profile_13.txt) useactual=true
New Loadshape.EV_14 npts=1440 minterval=1 mult=(file=Daily_1min_100profiles\WinterEV_profile_14.txt) useactual=true
New Loadshape.EV_15 npts=1440 minterval=1 mult=(file=Daily_1min_100profiles\WinterEV_profile_15.txt) useactual=true
New Loadshape.EV_16 npts=1440 minterval=1 mult=(file=Daily_1min_100profiles\WinterEV_profile_16.txt) useactual=true
New Loadshape.EV_17 npts=1440 minterval=1 mult=(file=Daily_1min_100profiles\WinterEV_profile_17.txt) useactual=true
New Loadshape.EV_18 npts=1440 minterval=1 mult=(file=Daily_1min_100profiles\WinterEV_profile_18.txt) useactual=true
New Loadshape.EV_19 npts=1440 minterval=1 mult=(file=Daily_1min_100profiles\WinterEV_profile_19.txt) useactual=true
New Loadshape.EV_20 npts=1440 minterval=1 mult=(file=Daily_1min_100profiles\WinterEV_profile_20.txt) useactual=true
New Loadshape.EV_21 npts=1440 minterval=1 mult=(file=Daily_1min_100profiles\WinterEV_profile_21.txt) useactual=true
New Loadshape.EV_22 npts=1440 minterval=1 mult=(file=Daily_1min_100profiles\WinterEV_profile_22.txt) useactual=true
New Loadshape.EV_23 npts=1440 minterval=1 mult=(file=Daily_1min_100profiles\WinterEV_profile_23.txt) useactual=true
New Loadshape.EV_24 npts=1440 minterval=1 mult=(file=Daily_1min_100profiles\WinterEV_profile_24.txt) useactual=true
New Loadshape.EV_25 npts=1440 minterval=1 mult=(file=Daily_1min_100profiles\WinterEV_profile_25.txt) useactual=true
New Loadshape.EV_26 npts=1440 minterval=1 mult=(file=Daily_1min_100profiles\WinterEV_profile_26.txt) useactual=true
New Loadshape.EV_27 npts=1440 minterval=1 mult=(file=Daily_1min_100profiles\WinterEV_profile_27.txt) useactual=true
New Loadshape.EV_28 npts=1440 minterval=1 mult=(file=Daily_1min_100profiles\WinterEV_profile_28.txt) useactual=true
New Loadshape.EV_29 npts=1440 minterval=1 mult=(file=Daily_1min_100profiles\WinterEV_profile_29.txt) useactual=true
New Loadshape.EV_30 npts=1440 minterval=1 mult=(file=Daily_1min_100profiles\WinterEV_profile_30.txt) useactual=true
New Loadshape.EV_31 npts=1440 minterval=1 mult=(file=Daily_1min_100profiles\WinterEV_profile_31.txt) useactual=true
New Loadshape.EV_32 npts=1440 minterval=1 mult=(file=Daily_1min_100profiles\WinterEV_profile_32.txt) useactual=true
New Loadshape.EV_33 npts=1440 minterval=1 mult=(file=Daily_1min_100profiles\WinterEV_profile_33.txt) useactual=true
New Loadshape.EV_34 npts=1440 minterval=1 mult=(file=Daily_1min_100profiles\WinterEV_profile_34.txt) useactual=true
New Loadshape.EV_35 npts=1440 minterval=1 mult=(file=Daily_1min_100profiles\WinterEV_profile_35.txt) useactual=true
New Loadshape.EV_36 npts=1440 minterval=1 mult=(file=Daily_1min_100profiles\WinterEV_profile_36.txt) useactual=true
New Loadshape.EV_37 npts=1440 minterval=1 mult=(file=Daily_1min_100profiles\WinterEV_profile_37.txt) useactual=true
New Loadshape.EV_38 npts=1440 minterval=1 mult=(file=Daily_1min_100profiles\WinterEV_profile_38.txt) useactual=true
New Loadshape.EV_39 npts=1440 minterval=1 mult=(file=Daily_1min_100profiles\WinterEV_profile_39.txt) useactual=true
New Loadshape.EV_40 npts=1440 minterval=1 mult=(file=Daily_1min_100profiles\WinterEV_profile_40.txt) useactual=true
New Loadshape.EV_41 npts=1440 minterval=1 mult=(file=Daily_1min_100profiles\WinterEV_profile_41.txt) useactual=true
New Loadshape.EV_42 npts=1440 minterval=1 mult=(file=Daily_1min_100profiles\WinterEV_profile_42.txt) useactual=true
New Loadshape.EV_43 npts=1440 minterval=1 mult=(file=Daily_1min_100profiles\WinterEV_profile_43.txt) useactual=true
New Loadshape.EV_44 npts=1440 minterval=1 mult=(file=Daily_1min_100profiles\WinterEV_profile_44.txt) useactual=true
New Loadshape.EV_45 npts=1440 minterval=1 mult=(file=Daily_1min_100profiles\WinterEV_profile_45.txt) useactual=true
New Loadshape.EV_46 npts=1440 minterval=1 mult=(file=Daily_1min_100profiles\WinterEV_profile_46.txt) useactual=true
New Loadshape.EV_47 npts=1440 minterval=1 mult=(file=Daily_1min_100profiles\WinterEV_profile_47.txt) useactual=true
New Loadshape.EV_48 npts=1440 minterval=1 mult=(file=Daily_1min_100profiles\WinterEV_profile_48.txt) useactual=true
New Loadshape.EV_49 npts=1440 minterval=1 mult=(file=Daily_1min_100profiles\WinterEV_profile_49.txt) useactual=true
New Loadshape.EV_50 npts=1440 minterval=1 mult=(file=Daily_1min_100profiles\WinterEV_profile_50.txt) useactual=true
New Loadshape.EV_51 npts=1440 minterval=1 mult=(file=Daily_1min_100profiles\WinterEV_profile_51.txt) useactual=true
New Loadshape.EV_52 npts=1440 minterval=1 mult=(file=Daily_1min_100profiles\WinterEV_profile_52.txt) useactual=true
New Loadshape.EV_53 npts=1440 minterval=1 mult=(file=Daily_1min_100profiles\WinterEV_profile_53.txt) useactual=true
New Loadshape.EV_54 npts=1440 minterval=1 mult=(file=Daily_1min_100profiles\WinterEV_profile_54.txt) useactual=true
New Loadshape.EV_55 npts=1440 minterval=1 mult=(file=Daily_1min_100profiles\WinterEV_profile_55.txt) useactual=true